Version 4
SHEET 1 2084 1896
WIRE 640 -64 -704 -64
WIRE 848 -64 640 -64
WIRE 1264 -64 848 -64
WIRE 640 16 640 -64
WIRE 880 64 816 64
WIRE 992 64 960 64
WIRE 1344 80 1184 80
WIRE 1440 80 1424 80
WIRE -896 96 -1024 96
WIRE -608 96 -816 96
WIRE -496 96 -528 96
WIRE -272 96 -496 96
WIRE -208 96 -272 96
WIRE -64 96 -144 96
WIRE -32 96 -64 96
WIRE 320 96 48 96
WIRE 544 96 320 96
WIRE 768 96 736 96
WIRE 816 96 816 64
WIRE 816 96 768 96
WIRE -1024 144 -1024 96
WIRE 848 144 848 -64
WIRE 320 160 320 96
WIRE 544 160 496 160
WIRE 768 160 768 96
WIRE 816 160 768 160
WIRE 1264 160 1264 -64
WIRE -496 176 -496 96
WIRE -272 176 -272 96
WIRE -64 176 -64 96
WIRE 992 176 992 64
WIRE 992 176 880 176
WIRE 1056 176 992 176
WIRE 1184 176 1184 80
WIRE 1184 176 1136 176
WIRE 1232 176 1184 176
WIRE 816 192 768 192
WIRE 1440 192 1440 80
WIRE 1440 192 1296 192
WIRE 1504 192 1440 192
WIRE 1664 192 1568 192
WIRE 1792 192 1664 192
WIRE 2000 192 1872 192
WIRE 1232 208 1184 208
WIRE 272 224 256 224
WIRE 1664 224 1664 192
WIRE 2000 224 2000 192
WIRE 576 288 576 272
WIRE 1664 320 1664 304
WIRE 2000 320 2000 304
WIRE -64 368 -64 256
WIRE 16 368 -64 368
WIRE 128 368 16 368
WIRE 320 368 320 256
WIRE 320 368 128 368
WIRE 704 368 704 272
WIRE 704 368 320 368
WIRE 768 368 768 192
WIRE 768 368 704 368
WIRE 1184 368 1184 208
WIRE 1184 368 768 368
WIRE 16 400 16 368
WIRE 128 400 128 368
WIRE 128 560 128 480
WIRE 256 560 256 224
WIRE 256 560 128 560
WIRE -704 672 -704 -64
WIRE 16 672 -704 672
WIRE 16 720 16 672
WIRE 16 832 16 800
WIRE 144 832 16 832
WIRE 256 832 256 560
WIRE 256 832 208 832
WIRE 16 848 16 832
WIRE -144 896 -192 896
WIRE -48 896 -64 896
WIRE 16 960 16 944
WIRE -704 1248 -704 672
WIRE 384 1248 -704 1248
WIRE 384 1296 384 1248
WIRE 384 1408 384 1376
WIRE 496 1408 496 160
WIRE 496 1408 384 1408
WIRE 384 1440 384 1408
WIRE 240 1488 160 1488
WIRE 160 1520 160 1488
WIRE -192 1680 -192 896
WIRE 384 1680 384 1536
WIRE 384 1680 -192 1680
WIRE -704 1728 -704 1248
WIRE -192 1728 -192 1680
FLAG 16 480 0
FLAG -1024 224 0
FLAG -496 240 0
FLAG -272 256 0
FLAG -192 1808 0
FLAG -704 1808 0
FLAG 16 960 0
FLAG 848 208 0
FLAG 1264 224 0
FLAG 2000 320 0
FLAG 1664 320 0
FLAG 160 1600 0
FLAG 576 288 0
SYMBOL njf 272 160 R0
SYMATTR InstName J1
SYMATTR Value LSK170A
SYMBOL res -512 80 R90
WINDOW 0 0 56 VBottom 2
WINDOW 3 32 56 VTop 2
SYMATTR InstName R1
SYMATTR Value 100R
SYMBOL res 64 80 R90
WINDOW 0 0 56 VBottom 2
WINDOW 3 32 56 VTop 2
SYMATTR InstName R3
SYMATTR Value 20kR
SYMBOL res -256 272 R180
WINDOW 0 36 76 Left 2
WINDOW 3 36 40 Left 2
SYMATTR InstName R4
SYMATTR Value 220kR
SYMBOL res -48 272 R180
WINDOW 0 36 76 Left 2
WINDOW 3 36 40 Left 2
SYMATTR InstName R5
SYMATTR Value 100kR
SYMBOL cap -512 176 R0
SYMATTR InstName C1
SYMATTR Value 1nC
SYMBOL cap -144 80 R90
WINDOW 0 0 32 VBottom 2
WINDOW 3 32 32 VTop 2
SYMATTR InstName C2
SYMATTR Value 22µC
SYMBOL voltage -1024 128 R0
WINDOW 3 -232 46 Left 2
WINDOW 123 0 0 Left 0
WINDOW 39 0 0 Left 0
SYMATTR Value SINE(0 0.7 2000)
SYMATTR InstName V1
SYMBOL voltage 16 384 R0
WINDOW 123 0 0 Left 0
WINDOW 39 0 0 Left 0
SYMATTR InstName V2
SYMATTR Value 4.5
SYMBOL res 112 384 R0
SYMATTR InstName R7
SYMATTR Value 220kR
SYMBOL diode 208 816 R90
WINDOW 0 0 32 VBottom 2
WINDOW 3 32 32 VTop 2
SYMATTR InstName D1
SYMATTR Value BAS16HY
SYMBOL res 0 704 R0
SYMATTR InstName R8
SYMATTR Value 10kR
SYMBOL res -48 880 R90
WINDOW 0 0 56 VBottom 2
WINDOW 3 32 56 VTop 2
SYMATTR InstName R9
SYMATTR Value 100kR
SYMBOL voltage -192 1712 R0
WINDOW 123 0 0 Left 0
WINDOW 39 0 0 Left 0
WINDOW 3 -283 139 Left 2
SYMATTR Value PULSE(0 5 0 0.000001 0.000001 0.002 0.004 4)
SYMATTR InstName V3
SYMBOL voltage -704 1712 R0
WINDOW 123 0 0 Left 0
WINDOW 39 0 0 Left 0
SYMATTR InstName V4
SYMATTR Value 9
SYMBOL npn -48 848 R0
SYMATTR InstName Q1
SYMATTR Value BC847A
SYMBOL res -800 80 R90
WINDOW 0 0 56 VBottom 2
WINDOW 3 32 56 VTop 2
SYMATTR InstName R2
SYMATTR Value 1kR
SYMBOL res 976 48 R90
WINDOW 0 0 56 VBottom 2
WINDOW 3 32 56 VTop 2
SYMATTR InstName R10
SYMATTR Value 20kR
SYMBOL res 1152 160 R90
WINDOW 0 0 56 VBottom 2
WINDOW 3 32 56 VTop 2
SYMATTR InstName R11
SYMATTR Value 20kR
SYMBOL res 1440 64 R90
WINDOW 0 0 56 VBottom 2
WINDOW 3 32 56 VTop 2
SYMATTR InstName R12
SYMATTR Value 20kR
SYMBOL cap 1568 176 R90
WINDOW 0 0 32 VBottom 2
WINDOW 3 32 32 VTop 2
SYMATTR InstName C3
SYMATTR Value 10µC
SYMBOL res 1648 208 R0
SYMATTR InstName R13
SYMATTR Value 220kR
SYMBOL res 1888 176 R90
WINDOW 0 0 56 VBottom 2
WINDOW 3 32 56 VTop 2
SYMATTR InstName R14
SYMATTR Value 100R
SYMBOL res 1984 208 R0
SYMATTR InstName R15
SYMATTR Value 10kR
SYMBOL OpAmps\\UniversalOpAmp 848 176 R0
SYMATTR InstName U3
SYMBOL OpAmps\\UniversalOpAmp 1264 192 R0
SYMATTR InstName U4
SYMBOL npn 320 1440 R0
SYMATTR InstName Q2
SYMATTR Value BC847A
SYMBOL res 368 1280 R0
SYMATTR InstName R16
SYMATTR Value 20kR
SYMBOL voltage 160 1504 R0
WINDOW 123 0 0 Left 0
WINDOW 39 0 0 Left 0
SYMATTR InstName V5
SYMATTR Value 5
SYMBOL Switches\\ADG1201 640 144 R0
SYMATTR InstName U1
SYMBOL res 336 1472 R90
WINDOW 0 0 56 VBottom 2
WINDOW 3 32 56 VTop 2
SYMATTR InstName R6
SYMATTR Value 100kR
TEXT -760 1848 Left 2 !.tran 0.01
