Version 4
SHEET 1 1844 1524
WIRE 608 -64 -704 -64
WIRE 1024 -64 608 -64
WIRE 640 64 576 64
WIRE 752 64 720 64
WIRE 1104 80 944 80
WIRE 1200 80 1184 80
WIRE -896 96 -1024 96
WIRE -608 96 -816 96
WIRE -496 96 -528 96
WIRE -272 96 -496 96
WIRE -208 96 -272 96
WIRE -64 96 -144 96
WIRE -32 96 -64 96
WIRE 320 96 48 96
WIRE 400 96 320 96
WIRE 528 96 480 96
WIRE 576 96 576 64
WIRE 576 96 528 96
WIRE -1024 144 -1024 96
WIRE 608 144 608 -64
WIRE 320 160 320 96
WIRE 528 160 528 96
WIRE 576 160 528 160
WIRE 1024 160 1024 -64
WIRE -496 176 -496 96
WIRE -272 176 -272 96
WIRE -64 176 -64 96
WIRE 752 176 752 64
WIRE 752 176 640 176
WIRE 816 176 752 176
WIRE 944 176 944 80
WIRE 944 176 896 176
WIRE 992 176 944 176
WIRE 576 192 528 192
WIRE 1200 192 1200 80
WIRE 1200 192 1056 192
WIRE 1264 192 1200 192
WIRE 1424 192 1328 192
WIRE 1552 192 1424 192
WIRE 1760 192 1632 192
WIRE 992 208 944 208
WIRE 272 224 256 224
WIRE 1424 224 1424 192
WIRE 1760 224 1760 192
WIRE -64 288 -64 256
WIRE 16 288 -64 288
WIRE 128 288 16 288
WIRE 320 288 320 256
WIRE 320 288 128 288
WIRE 528 288 528 192
WIRE 528 288 320 288
WIRE 944 288 944 208
WIRE 944 288 528 288
WIRE 16 320 16 288
WIRE 128 320 128 288
WIRE 128 480 128 400
WIRE 256 480 256 224
WIRE 256 480 128 480
WIRE -704 592 -704 -64
WIRE -224 592 -704 592
WIRE -224 640 -224 592
WIRE -224 752 -224 720
WIRE -80 752 -224 752
WIRE 256 752 256 480
WIRE 256 752 -16 752
WIRE -224 768 -224 752
WIRE -704 816 -704 592
WIRE -640 816 -704 816
WIRE -416 816 -560 816
WIRE -288 816 -336 816
WIRE -224 880 -224 864
WIRE -560 896 -560 816
WIRE -560 896 -608 896
WIRE -704 912 -704 816
WIRE -560 912 -560 896
WIRE -640 1136 -640 816
WIRE -448 1136 -640 1136
WIRE -656 1232 -896 1232
WIRE -448 1232 -448 1136
WIRE -896 1296 -896 1232
WIRE -656 1296 -656 1232
WIRE -448 1344 -448 1312
WIRE -128 1344 -448 1344
WIRE -448 1376 -448 1344
WIRE -656 1424 -656 1376
WIRE -512 1424 -656 1424
WIRE -608 1520 -608 896
WIRE -448 1520 -448 1472
WIRE -448 1520 -608 1520
FLAG 16 400 0
FLAG -1024 224 0
FLAG -496 240 0
FLAG -272 256 0
FLAG -560 992 0
FLAG -704 992 0
FLAG -224 880 0
FLAG 608 208 0
FLAG 1024 224 0
FLAG 1760 304 0
FLAG 1424 304 0
FLAG -896 1376 0
FLAG -128 1424 0
SYMBOL njf 272 160 R0
SYMATTR InstName J1
SYMATTR Value LSK170A
SYMBOL res -512 80 R90
WINDOW 0 0 56 VBottom 2
WINDOW 3 32 56 VTop 2
SYMATTR InstName R1
SYMATTR Value 100R
SYMBOL res 64 80 R90
WINDOW 0 0 56 VBottom 2
WINDOW 3 32 56 VTop 2
SYMATTR InstName R3
SYMATTR Value 22kR
SYMBOL res -256 272 R180
WINDOW 0 36 76 Left 2
WINDOW 3 36 40 Left 2
SYMATTR InstName R4
SYMATTR Value 220kR
SYMBOL res -48 272 R180
WINDOW 0 36 76 Left 2
WINDOW 3 36 40 Left 2
SYMATTR InstName R5
SYMATTR Value 100kR
SYMBOL cap -512 176 R0
SYMATTR InstName C1
SYMATTR Value 1nC
SYMBOL cap -144 80 R90
WINDOW 0 0 32 VBottom 2
WINDOW 3 32 32 VTop 2
SYMATTR InstName C2
SYMATTR Value 22µC
SYMBOL res 496 80 R90
WINDOW 0 0 56 VBottom 2
WINDOW 3 32 56 VTop 2
SYMATTR InstName R6
SYMATTR Value 100R
SYMBOL voltage -1024 128 R0
WINDOW 3 -232 46 Left 2
WINDOW 123 0 0 Left 0
WINDOW 39 0 0 Left 0
SYMATTR Value SINE(0 2.5 2000)
SYMATTR InstName V1
SYMBOL voltage 16 304 R0
WINDOW 123 0 0 Left 0
WINDOW 39 0 0 Left 0
SYMATTR InstName V2
SYMATTR Value 4.5
SYMBOL res 112 304 R0
SYMATTR InstName R7
SYMATTR Value 680kR
SYMBOL diode -16 736 R90
WINDOW 0 0 32 VBottom 2
WINDOW 3 32 32 VTop 2
SYMATTR InstName D1
SYMATTR Value BAS16HY
SYMBOL res -240 624 R0
SYMATTR InstName R8
SYMATTR Value 2kR
SYMBOL res -320 800 R90
WINDOW 0 0 56 VBottom 2
WINDOW 3 32 56 VTop 2
SYMATTR InstName R9
SYMATTR Value 2kR
SYMBOL voltage -560 896 R0
WINDOW 123 0 0 Left 0
WINDOW 39 0 0 Left 0
SYMATTR InstName V3
SYMATTR Value PULSE(0 5 0 0.000001 0.000001 0.002 0.004 4)
SYMBOL voltage -704 896 R0
WINDOW 123 0 0 Left 0
WINDOW 39 0 0 Left 0
SYMATTR InstName V4
SYMATTR Value 9
SYMBOL npn -288 768 R0
SYMATTR InstName Q1
SYMATTR Value BC847A
SYMBOL res -800 80 R90
WINDOW 0 0 56 VBottom 2
WINDOW 3 32 56 VTop 2
SYMATTR InstName R2
SYMATTR Value 1kR
SYMBOL res 736 48 R90
WINDOW 0 0 56 VBottom 2
WINDOW 3 32 56 VTop 2
SYMATTR InstName R10
SYMATTR Value 22kR
SYMBOL res 912 160 R90
WINDOW 0 0 56 VBottom 2
WINDOW 3 32 56 VTop 2
SYMATTR InstName R11
SYMATTR Value 22kR
SYMBOL res 1200 64 R90
WINDOW 0 0 56 VBottom 2
WINDOW 3 32 56 VTop 2
SYMATTR InstName R12
SYMATTR Value 22kR
SYMBOL cap 1328 176 R90
WINDOW 0 0 32 VBottom 2
WINDOW 3 32 32 VTop 2
SYMATTR InstName C3
SYMATTR Value 10µC
SYMBOL res 1408 208 R0
SYMATTR InstName R13
SYMATTR Value 220kR
SYMBOL res 1648 176 R90
WINDOW 0 0 56 VBottom 2
WINDOW 3 32 56 VTop 2
SYMATTR InstName R14
SYMATTR Value 100R
SYMBOL res 1744 208 R0
SYMATTR InstName R15
SYMATTR Value 10kR
SYMBOL OpAmps\\UniversalOpAmp 608 176 R0
SYMATTR InstName U3
SYMBOL OpAmps\\UniversalOpAmp 1024 192 R0
SYMATTR InstName U4
SYMBOL npn -512 1376 R0
SYMATTR InstName Q2
SYMATTR Value BC847A
SYMBOL res -464 1216 R0
SYMATTR InstName R16
SYMATTR Value 2kR
SYMBOL res -672 1280 R0
SYMATTR InstName R17
SYMATTR Value 2kR
SYMBOL voltage -896 1280 R0
WINDOW 123 0 0 Left 0
WINDOW 39 0 0 Left 0
SYMATTR InstName V5
SYMATTR Value 5
SYMBOL res -144 1328 R0
SYMATTR InstName R18
SYMATTR Value 100kR
TEXT -1146 1016 Left 2 !.tran 0.01
