Version 4
SHEET 1 1620 680
WIRE 400 -784 160 -784
WIRE -208 -720 -320 -720
WIRE -112 -720 -208 -720
WIRE 160 -704 160 -784
WIRE 400 -656 400 -784
WIRE -320 -608 -320 -720
WIRE 400 -560 400 -576
WIRE 160 -544 160 -624
WIRE -112 -528 -112 -720
WIRE -320 -496 -320 -528
WIRE 160 -480 160 -544
WIRE -112 -432 -112 -464
WIRE -32 -432 -112 -432
WIRE 96 -432 48 -432
WIRE -112 -400 -112 -432
WIRE 160 -352 160 -384
WIRE -112 -304 -112 -320
WIRE -32 -48 -96 -48
WIRE 32 -48 -32 -48
WIRE 256 -48 192 -48
WIRE 320 -48 256 -48
WIRE 32 -32 32 -48
WIRE 320 -32 320 -48
WIRE -96 -16 -96 -48
WIRE 192 -16 192 -48
WIRE 32 64 32 48
WIRE 320 64 320 48
FLAG -96 64 0
FLAG 192 64 0
FLAG 32 64 0
FLAG 320 64 0
FLAG -32 -48 V_HL
FLAG 256 -48 V_LH
FLAG 160 -352 0
FLAG -112 -304 0
FLAG -320 -496 0
FLAG 400 -560 0
FLAG 160 -544 FNC_IN
FLAG -208 -720 FUNCTION_a
SYMBOL voltage -96 -32 R0
WINDOW 123 0 0 Left 0
WINDOW 39 0 0 Left 0
SYMATTR InstName V3
SYMATTR Value 3.85
SYMBOL voltage 192 -32 R0
WINDOW 123 0 0 Left 0
WINDOW 39 0 0 Left 0
SYMATTR InstName V4
SYMATTR Value 1.65
SYMBOL res 16 -48 R0
SYMATTR InstName R7
SYMATTR Value 3kR
SYMBOL res 304 -48 R0
SYMATTR InstName R8
SYMATTR Value 3kR
SYMBOL npn 96 -480 R0
SYMATTR InstName Q3
SYMATTR Value BC847A
SYMBOL res -128 -416 R0
SYMATTR InstName R10
SYMATTR Value 10kR
SYMBOL voltage -320 -624 R0
WINDOW 123 0 0 Left 0
WINDOW 39 0 0 Left 0
WINDOW 3 -1031 62 Left 2
SYMATTR Value PWL(0 0 0.09 0 0.1 2 0.19 2 0.2 4.5 0.29 4.5 0.3 7 0.39 7 0.4 9.5 0.49 9.5 0.5 12 0.59 12)
SYMATTR InstName V5
SYMBOL res 144 -720 R0
SYMATTR InstName R11
SYMATTR Value 4k7R
SYMBOL voltage 400 -672 R0
WINDOW 123 0 0 Left 0
WINDOW 39 0 0 Left 0
SYMATTR InstName V6
SYMATTR Value 5
SYMBOL zener -96 -464 R180
WINDOW 0 24 64 Left 2
WINDOW 3 24 0 Left 2
SYMATTR InstName D1
SYMATTR Value BZX84-C3V6
SYMBOL res 64 -448 R90
WINDOW 0 0 56 VBottom 2
WINDOW 3 32 56 VTop 2
SYMATTR InstName R9
SYMATTR Value 4k7R
TEXT -744 -272 Left 2 !.tran 0.6
TEXT -352 -432 Left 2 ;.inc BZX84-C3V6.lib
TEXT 552 -1000 Left 1 !***********************************************************\n*\n* BZX84-C3V6\n*\n* Nexperia\n*\n* Voltage regulator diodes\n* VFmax = 0,9V    @ IF = 10mA\n* IRmax = 5µA     @ VR = 1V\n* VZmax = 3,8V    @ IZ = 5mA\n* IZSM  = 6A      @ tp = 100µs\n*\n*\n*\n* Package pinning does not match Spice model pinning.\n* Package: SOT23\n*\n* Package Pin 1: Anode\n* Package Pin 2: Not Connected\n* Package Pin 3: Cathode\n*\n*\n* Extraction date (week/year): #\n* Simulator: PSPICE\n*\n***********************************************************\n*\n.MODEL BZX84-C3V6 D\n+ IS=110.88E-18\n+ N=.92657\n+ RS=.85899\n+ IKF=147.68\n+ CJO=219.21E-12\n+ M=.31686\n+ VJ=.57426\n+ ISR=18.160E-9\n+ BV=3.6606\n+ IBV=61.478E-3\n+ TT=125.51E-9\n.ENDS\n*
