Version 4
SHEET 1 1620 784
WIRE 272 -192 112 -192
WIRE 112 -144 112 -192
WIRE 112 -32 112 -64
WIRE 272 0 272 -192
WIRE 272 0 192 0
WIRE 368 0 272 0
WIRE 192 32 192 0
WIRE 368 32 368 0
WIRE 368 128 368 112
WIRE 544 128 368 128
WIRE 688 128 544 128
WIRE 192 144 192 112
WIRE 368 144 368 128
WIRE 368 144 192 144
WIRE 192 160 192 144
WIRE 368 160 368 144
WIRE 688 224 688 128
WIRE 368 272 368 240
WIRE -112 320 -192 320
WIRE -32 320 -112 320
WIRE 304 320 48 320
WIRE 688 336 688 304
WIRE 192 368 192 240
WIRE 368 400 368 368
WIRE 32 416 -32 416
WIRE 128 416 112 416
WIRE -32 496 -32 416
WIRE 192 496 192 464
WIRE -192 544 -192 320
WIRE -32 544 -32 496
WIRE -192 640 -192 624
WIRE -32 640 -32 624
FLAG 192 496 0
FLAG 368 400 0
FLAG 112 -32 0
FLAG -112 320 FNC_IN1
FLAG -32 496 FNC_IN2
FLAG -192 640 0
FLAG -32 640 0
FLAG 544 128 FUNCTION
FLAG 688 336 0
SYMBOL npn 128 368 R0
SYMATTR InstName Q1
SYMATTR Value BC847A
SYMBOL npn 304 272 R0
SYMATTR InstName Q2
SYMATTR Value BC847A
SYMBOL res 64 304 R90
WINDOW 0 0 56 VBottom 2
WINDOW 3 32 56 VTop 2
SYMATTR InstName R1
SYMATTR Value 10kR
SYMBOL res 128 400 R90
WINDOW 0 0 56 VBottom 2
WINDOW 3 32 56 VTop 2
SYMATTR InstName R2
SYMATTR Value 10kR
SYMBOL res 176 16 R0
SYMATTR InstName R3
SYMATTR Value 2kR
SYMBOL res 352 16 R0
SYMATTR InstName R4
SYMATTR Value 2kR
SYMBOL res 176 144 R0
SYMATTR InstName R5
SYMATTR Value 1k5R
SYMBOL res 352 144 R0
SYMATTR InstName R6
SYMATTR Value 47R
SYMBOL voltage 112 -160 R0
WINDOW 123 0 0 Left 0
WINDOW 39 0 0 Left 0
SYMATTR InstName V2
SYMATTR Value 12
SYMBOL voltage -192 528 R0
WINDOW 3 -306 180 Left 2
WINDOW 123 0 0 Left 0
WINDOW 39 0 0 Left 0
SYMATTR InstName V3
SYMATTR Value PWL(0 0 0.9 0 1 0 1.9 0 2 5 2.9 5 3 5 3.9 5)
SYMBOL voltage -32 528 R0
WINDOW 3 9 153 Left 2
WINDOW 123 0 0 Left 0
WINDOW 39 0 0 Left 0
SYMATTR InstName V1
SYMATTR Value PWL(0 0 0.9 0 1 5 1.9 5 2 0 2.9 0 3 5 3.9 5)
SYMBOL res 672 208 R0
SYMATTR InstName R7
SYMATTR Value 10kR
TEXT 744 768 Left 2 !.tran 4
