Version 4
SHEET 1 2084 1896
WIRE 832 -64 -16 -64
WIRE 1040 -64 832 -64
WIRE 1248 -64 1040 -64
WIRE 1328 -64 1248 -64
WIRE -16 -16 -16 -64
WIRE -16 80 -16 64
WIRE 1344 80 1184 80
WIRE 1440 80 1424 80
WIRE 928 96 768 96
WIRE 1024 96 1008 96
WIRE 832 144 832 -64
WIRE 112 160 -16 160
WIRE 320 160 192 160
WIRE 352 160 320 160
WIRE 464 160 352 160
WIRE 608 160 528 160
WIRE 640 160 608 160
WIRE 768 160 768 96
WIRE 768 160 720 160
WIRE 816 160 768 160
WIRE 1248 160 1248 -64
WIRE 1024 176 1024 96
WIRE 1024 176 880 176
WIRE 1056 176 1024 176
WIRE 1184 176 1184 80
WIRE 1184 176 1136 176
WIRE 1232 176 1184 176
WIRE 320 192 320 160
WIRE 816 192 768 192
WIRE 1440 192 1440 80
WIRE 1440 192 1296 192
WIRE 1504 192 1440 192
WIRE 1664 192 1568 192
WIRE 1824 192 1744 192
WIRE 1872 192 1824 192
WIRE -16 208 -16 160
WIRE 1232 208 1184 208
WIRE 832 224 832 208
WIRE 864 224 864 208
WIRE 1040 224 1040 -64
WIRE 1040 224 864 224
WIRE 1328 224 1328 -64
WIRE 1328 224 1280 224
WIRE 1872 224 1872 192
WIRE 608 240 608 160
WIRE 1248 240 1248 224
WIRE 320 288 320 272
WIRE 1872 320 1872 304
WIRE 608 368 608 320
WIRE 768 368 768 192
WIRE 768 368 608 368
WIRE 880 368 768 368
WIRE 1184 368 1184 208
WIRE 1184 368 880 368
WIRE 96 496 -16 496
WIRE 320 496 96 496
WIRE 432 496 320 496
WIRE 480 528 384 528
WIRE 96 544 96 496
WIRE 432 544 432 496
WIRE 384 560 384 528
WIRE 400 560 384 560
WIRE 480 576 480 528
WIRE 480 576 464 576
WIRE 576 576 480 576
WIRE 672 576 656 576
WIRE -16 592 -16 496
WIRE 400 592 368 592
WIRE 224 624 96 624
WIRE 368 624 368 592
WIRE 368 624 224 624
WIRE 224 640 224 624
WIRE 320 640 320 496
WIRE 432 640 320 640
WIRE 672 640 672 576
WIRE 736 640 672 640
WIRE 816 640 736 640
WIRE 880 640 880 368
WIRE 880 640 816 640
WIRE 480 656 384 656
WIRE 432 672 432 640
WIRE 736 672 736 640
WIRE 816 672 816 640
WIRE -16 688 -16 672
WIRE 384 688 384 656
WIRE 400 688 384 688
WIRE 480 704 480 656
WIRE 480 704 464 704
WIRE 576 704 480 704
WIRE 672 704 672 640
WIRE 672 704 656 704
WIRE 224 720 224 704
WIRE 368 720 368 624
WIRE 400 720 368 720
WIRE 736 752 736 736
WIRE 816 752 816 736
FLAG -16 288 0
FLAG 832 224 0
FLAG 1248 240 0
FLAG 1872 320 0
FLAG 320 288 0
FLAG -16 80 0
FLAG 352 160 IN
FLAG 1824 192 OUT
FLAG -16 688 0
FLAG 432 608 0
FLAG 432 736 0
FLAG 96 704 0
FLAG 736 752 0
FLAG 816 752 0
FLAG 224 720 0
SYMBOL res 624 336 R180
WINDOW 0 36 76 Left 2
WINDOW 3 36 40 Left 2
SYMATTR InstName R5
SYMATTR Value 100kR
SYMBOL cap 528 144 R90
WINDOW 0 0 32 VBottom 2
WINDOW 3 32 32 VTop 2
SYMATTR InstName C2
SYMATTR Value 22µC
SYMBOL voltage -16 192 R0
WINDOW 3 -232 46 Left 2
WINDOW 123 0 0 Left 0
WINDOW 39 0 0 Left 0
SYMATTR Value SINE(0 1.7 20000000)
SYMATTR InstName V1
SYMBOL res 208 144 R90
WINDOW 0 0 56 VBottom 2
WINDOW 3 32 56 VTop 2
SYMATTR InstName R2
SYMATTR Value 75R
SYMBOL res 1024 80 R90
WINDOW 0 0 56 VBottom 2
WINDOW 3 32 56 VTop 2
SYMATTR InstName R10
SYMATTR Value 1kR
SYMBOL res 1152 160 R90
WINDOW 0 0 56 VBottom 2
WINDOW 3 32 56 VTop 2
SYMATTR InstName R11
SYMATTR Value 1kR
SYMBOL res 1440 64 R90
WINDOW 0 0 56 VBottom 2
WINDOW 3 32 56 VTop 2
SYMATTR InstName R12
SYMATTR Value 2kR
SYMBOL cap 1568 176 R90
WINDOW 0 0 32 VBottom 2
WINDOW 3 32 32 VTop 2
SYMATTR InstName C3
SYMATTR Value 300µC
SYMBOL res 1760 176 R90
WINDOW 0 0 56 VBottom 2
WINDOW 3 32 56 VTop 2
SYMATTR InstName R14
SYMATTR Value 75R
SYMBOL res 1856 208 R0
SYMATTR InstName R15
SYMATTR Value 75R
SYMBOL res 736 144 R90
WINDOW 0 0 56 VBottom 2
WINDOW 3 32 56 VTop 2
SYMATTR InstName R6
SYMATTR Value 1kR
SYMBOL res 304 176 R0
SYMATTR InstName R1
SYMATTR Value 75R
SYMBOL voltage -16 -32 R0
WINDOW 123 0 0 Left 0
WINDOW 39 0 0 Left 0
SYMATTR InstName V3
SYMATTR Value 5
SYMBOL OpAmps\\AD8041 848 176 R0
SYMATTR InstName U1
SYMBOL OpAmps\\AD8041 1264 192 R0
SYMATTR InstName U2
SYMBOL OpAmps\\ADA4896 432 512 R0
SYMATTR InstName U3
SYMBOL OpAmps\\ADA4896 432 640 R0
SYMATTR InstName U4
SYMBOL voltage -16 576 R0
WINDOW 123 0 0 Left 0
WINDOW 39 0 0 Left 0
SYMATTR InstName V4
SYMATTR Value 5
SYMBOL res 80 528 R0
SYMATTR InstName R3
SYMATTR Value 10kR
SYMBOL res 80 608 R0
SYMATTR InstName R4
SYMATTR Value 10kR
SYMBOL res 672 560 R90
WINDOW 0 0 56 VBottom 2
WINDOW 3 32 56 VTop 2
SYMATTR InstName R7
SYMATTR Value 100R
SYMBOL res 672 688 R90
WINDOW 0 0 56 VBottom 2
WINDOW 3 32 56 VTop 2
SYMATTR InstName R8
SYMATTR Value 100R
SYMBOL cap 720 672 R0
SYMATTR InstName C1
SYMATTR Value 10µC
SYMATTR SpiceLine Rser=10
SYMBOL cap 800 672 R0
SYMATTR InstName C4
SYMATTR Value 100nC
SYMBOL cap 208 640 R0
SYMATTR InstName C5
SYMATTR Value 220nC
TEXT -280 560 Left 2 !.tran 0.000001
