Version 4
SHEET 1 2084 1896
WIRE 832 -64 -16 -64
WIRE 1040 -64 832 -64
WIRE 1248 -64 1040 -64
WIRE 1328 -64 1248 -64
WIRE -16 -16 -16 -64
WIRE -16 80 -16 64
WIRE 1344 80 1184 80
WIRE 1440 80 1424 80
WIRE 928 96 768 96
WIRE 1024 96 1008 96
WIRE 832 144 832 -64
WIRE 112 160 -16 160
WIRE 320 160 192 160
WIRE 352 160 320 160
WIRE 464 160 352 160
WIRE 608 160 528 160
WIRE 640 160 608 160
WIRE 768 160 768 96
WIRE 768 160 720 160
WIRE 816 160 768 160
WIRE 1248 160 1248 -64
WIRE 1024 176 1024 96
WIRE 1024 176 880 176
WIRE 1056 176 1024 176
WIRE 1184 176 1184 80
WIRE 1184 176 1136 176
WIRE 1232 176 1184 176
WIRE 320 192 320 160
WIRE 816 192 768 192
WIRE 1440 192 1440 80
WIRE 1440 192 1296 192
WIRE 1504 192 1440 192
WIRE 1664 192 1568 192
WIRE 1824 192 1744 192
WIRE 1872 192 1824 192
WIRE -16 208 -16 160
WIRE 1232 208 1184 208
WIRE 832 224 832 208
WIRE 864 224 864 208
WIRE 1040 224 1040 -64
WIRE 1040 224 864 224
WIRE 1328 224 1328 -64
WIRE 1328 224 1280 224
WIRE 1872 224 1872 192
WIRE 608 240 608 160
WIRE 1248 240 1248 224
WIRE 320 288 320 272
WIRE 1872 320 1872 304
WIRE 608 368 608 320
WIRE 768 368 768 192
WIRE 768 368 608 368
WIRE 880 368 768 368
WIRE 1184 368 1184 208
WIRE 1184 368 880 368
WIRE 880 400 880 368
WIRE 880 496 880 480
FLAG 880 496 0
FLAG -16 288 0
FLAG 832 224 0
FLAG 1248 240 0
FLAG 1872 320 0
FLAG 320 288 0
FLAG -16 80 0
FLAG 352 160 IN
FLAG 1824 192 OUT
SYMBOL res 624 336 R180
WINDOW 0 36 76 Left 2
WINDOW 3 36 40 Left 2
SYMATTR InstName R5
SYMATTR Value 100kR
SYMBOL cap 528 144 R90
WINDOW 0 0 32 VBottom 2
WINDOW 3 32 32 VTop 2
SYMATTR InstName C2
SYMATTR Value 22µC
SYMBOL voltage -16 192 R0
WINDOW 3 -232 46 Left 2
WINDOW 123 0 0 Left 0
WINDOW 39 0 0 Left 0
SYMATTR Value SINE(0 1.7 20000000)
SYMATTR InstName V1
SYMBOL voltage 880 384 R0
WINDOW 123 0 0 Left 0
WINDOW 39 0 0 Left 0
SYMATTR InstName V2
SYMATTR Value 2.5
SYMBOL res 208 144 R90
WINDOW 0 0 56 VBottom 2
WINDOW 3 32 56 VTop 2
SYMATTR InstName R2
SYMATTR Value 75R
SYMBOL res 1024 80 R90
WINDOW 0 0 56 VBottom 2
WINDOW 3 32 56 VTop 2
SYMATTR InstName R10
SYMATTR Value 1kR
SYMBOL res 1152 160 R90
WINDOW 0 0 56 VBottom 2
WINDOW 3 32 56 VTop 2
SYMATTR InstName R11
SYMATTR Value 1kR
SYMBOL res 1440 64 R90
WINDOW 0 0 56 VBottom 2
WINDOW 3 32 56 VTop 2
SYMATTR InstName R12
SYMATTR Value 2kR
SYMBOL cap 1568 176 R90
WINDOW 0 0 32 VBottom 2
WINDOW 3 32 32 VTop 2
SYMATTR InstName C3
SYMATTR Value 300µC
SYMBOL res 1760 176 R90
WINDOW 0 0 56 VBottom 2
WINDOW 3 32 56 VTop 2
SYMATTR InstName R14
SYMATTR Value 75R
SYMBOL res 1856 208 R0
SYMATTR InstName R15
SYMATTR Value 75R
SYMBOL res 736 144 R90
WINDOW 0 0 56 VBottom 2
WINDOW 3 32 56 VTop 2
SYMATTR InstName R6
SYMATTR Value 1kR
SYMBOL res 304 176 R0
SYMATTR InstName R1
SYMATTR Value 75R
SYMBOL voltage -16 -32 R0
WINDOW 123 0 0 Left 0
WINDOW 39 0 0 Left 0
SYMATTR InstName V3
SYMATTR Value 5
SYMBOL OpAmps\\AD8041 848 176 R0
SYMATTR InstName U1
SYMBOL OpAmps\\AD8041 1264 192 R0
SYMATTR InstName U2
TEXT 152 552 Left 2 !.tran 0.000001
